***** MODEL PARAMETERS EXTRACTED FROM TECAP *****
.MODEL  2SK170GR   NJF
+ LAMBDA = 0.00502036    
+ RD     = 15.4743       
+ RS     = 5.95329       
+ IS     = 2.73199E-15   
+ PB     = 0.907431      
+ FC     = 0.524428      
+ M      = 0.756027      
+ BETA   = 4.898920E-02  
+ CGD    = 5.360830E-11  
+ CGS    = 5.359680E-11  
+ VTO    = -2.559500E-01 
