***** MODEL PARAMETERS EXTRACTED FROM TECAP *****
.MODEL HLMPD101 D
+ RS     = 1.77632       
+ EG     = 1.11          
+ XTI    = 3             
+ VJ     = 0.323137      
+ M      = 0.0912864     
+ FC     = 0.99          
+ BV     = 1.500000E+01  
+ CJO    = 2.266670E-11  STAT 1.850728E-11 2.776092E-11 :GAUSS
+ IS     = 2.000100E-22  
+ N      = 1.456380E+00  
+ TT     = 1.000000E-07  
