.SUBCKT PUSHSW 1 2 3
* Half Ideal Push Switch - Perfect Open
* PUSHSW PinSeq: IN CONT OUT
* Created by George Overton - 30 October 1996
R1 1 0 100MEG
R2 2 0 100MEG
R3 3 0 100MEG
S1 1 2 3 0 PUSHSW OFF
.MODEL PUSHSW SW (VT=0.5 VH=0.1)
.ENDS PUSHSW
