****MAIN SPICE TIME FILE

.TRAN 10p 100n

.END