***** MODEL PARAMETERS EXTRACTED FROM TECAP *****
.MODEL  1N4002   D
+ RS     = 0.242137      
+ EG     = 1.11          
+ XTI    = 3                   
+ VJ     = 0.341271      
+ M      = 0.32879       
+ FC     = 0.99          
+ BV     = 1.000000E+02  
+ CJO    = 2.630490E-11  STAT 2.147786E-11 3.221679E-11 :GAUSS
+ IS     = 3.160570E-09  STAT 2.868847E-10 3.481957E-08 :GAUSS
+ N      = 1.744130E+00  
+ TT     = 1.000000E-07  
