***** MODEL PARAMETERS EXTRACTED FROM TECAP *****
.MODEL  1N4463   D
+ RS     = 0.749033      
+ EG     = 1.11          
+ XTI    = 3             
+ IBV    = 0.0050397     
+ VJ     = 0.558125      
+ M      = 0.333824      
+ FC     = 0.99          
+ BV     = 8.447360E+00  
+ CJO    = 6.423860E-10  STAT 5.245060E-10 7.867590E-10 :GAUSS
+ IS     = 1.006410E-13  
+ N      = 1.128980E+00  
+ TT     = 1.000000E-07  
+ PMAX   = 1.500000E+00  
