***** MODEL PARAMETERS EXTRACTED FROM TECAP *****
.MODEL  1N4534   D
+ RS     = 1.24212       
+ EG     = 1.11          
+ XTI    = 3                    
+ VJ     = 0.143436      
+ M      = 0.0482937     
+ FC     = 0.99          
+ BV     = 5.000000E+01  
+ CJO    = 8.662090E-13  STAT 7.072567E-13 1.060885E-12 :GAUSS
+ IS     = 3.964310E-09  
+ N      = 2.000000E+00  
+ TT     = 5.770780E-09  STAT 3.331757E-09 9.995297E-09 :GAUSS
