***** MODEL PARAMETERS EXTRACTED FROM TECAP *****
.MODEL  1N645   D
+ RS     = 0.318695      
+ EG     = 1.11          
+ XTI    = 3             
+ VJ     = 0.32729       
+ M      = 0.346337      
+ FC     = 0.99          
+ BV     = 2.250000E+02  
+ CJO    = 1.306810E-11  STAT 1.067006E-11 1.600509E-11 :GAUSS
+ IS     = 6.043690E-10  
+ N      = 1.694040E+00  
+ TT     = 1.000000E-07  
