***** MODEL PARAMETERS EXTRACTED FROM TECAP *****
.MODEL  1N960B   D
+ RS     = 1.20166       
+ EG     = 1.11          
+ XTI    = 3             
+ IBV    = 3.92803E-05   
+ VJ     = 0.697581      
+ M      = 0.351899      
+ FC     = 0.99          
+ BV     = 8.942190E+00  
+ CJO    = 7.624680E-11  STAT 6.225525E-11 9.338288E-11 :GAUSS
+ IS     = 2.190580E-15  
+ N      = 1.029770E+00  
+ TT     = 1.000000E-07  
+ PMAX   = 4.000000E-01  
