***** MODEL PARAMETERS EXTRACTED FROM TECAP *****
.MODEL  1S1588   D
+ RS     = 0.877151      
+ EG     = 1.11          
+ XTI    = 3               
+ VJ     = 0.103463      
+ M      = 0.0200799     
+ FC     = 0.99          
+ BV     = 3.500000E+01  
+ CJO    = 1.037230E-12  STAT 8.468947E-13 1.270342E-12 :GAUSS
+ IS     = 1.107380E-08  
+ N      = 1.997070E+00  
+ TT     = 1.000000E-07  
