***** MODEL PARAMETERS EXTRACTED FROM TECAP *****
.MODEL  BB804   D
+ RS     = 0.321587      
+ EG     = 1.11          
+ XTI    = 3             
+ VJ     = 0.723345      
+ M      = 0.459261      
+ FC     = 0.99          
+ BV     = 1.800000E+01  
+ CJO    = 7.942220E-11  STAT 6.484795E-11 9.727193E-11 :GAUSS
+ IS     = 8.138170E-15  
+ N      = 1.046710E+00  
+ TT     = 1.000000E-07  
