***** MODEL PARAMETERS EXTRACTED FROM TECAP *****
.MODEL  MUR1100   D
+ RS     = 0.400486      
+ EG     = 1.11          
+ XTI    = 3             
+ VJ     = 0.433863      
+ M      = 0.408515      
+ FC     = 0.99          
+ BV     = 1.000000E+03  
+ CJO    = 4.995910E-11  STAT 4.079143E-11 6.118715E-11 :GAUSS
+ IS     = 5.772100E-09  STAT 5.608239E-10 5.940749E-08 :GAUSS
+ N      = 1.869200E+00  
+ TT     = 8.000000E-08  STAT 4.618800E-08 1.385641E-07 :GAUSS
