***** MODEL PARAMETERS EXTRACTED FROM TECAP *****
.MODEL  RD10E   D
+ RS     = 0.448464      
+ EG     = 1.11          
+ XTI    = 3             
+ IBV    = 0.00614784    
+ VJ     = 0.419179      
+ M      = 0.330285      
+ FC     = 0.99          
+ BV     = 9.802530E+00  
+ CJO    = 8.813190E-11  STAT 7.195940E-11 1.079391E-10 :GAUSS
+ IS     = 7.147480E-15  
+ N      = 1.098880E+00  
+ TT     = 1.000000E-07  
+ PMAX   = 5.000000E-01  
