***** MODEL PARAMETERS EXTRACTED FROM TECAP *****
.MODEL  RD15E   D
+ RS     = 0.417563      
+ EG     = 1.11          
+ XTI    = 3             
+ IBV    = 0.0216989     
+ VJ     = 0.557389      
+ M      = 0.326282      
+ FC     = 0.99          
+ BV     = 1.459770E+01  
+ CJO    = 4.588230E-11  STAT 3.746274E-11 5.619411E-11 :GAUSS
+ IS     = 2.802130E-14  
+ N      = 1.156780E+00  
+ TT     = 1.000000E-07  
+ PMAX   = 5.000000E-01  
