***** MODEL PARAMETERS EXTRACTED FROM TECAP *****
.MODEL  RD20E   D
+ RS     = 0.465135      
+ EG     = 1.11          
+ XTI    = 3             
+ IBV    = 0.0252017     
+ VJ     = 0.56613       
+ M      = 0.323538      
+ FC     = 0.99          
+ BV     = 1.970240E+01  
+ CJO    = 3.671680E-11  STAT 2.997914E-11 4.496871E-11 :GAUSS
+ IS     = 1.462140E-13  
+ N      = 1.219700E+00  
+ TT     = 1.000000E-07  
+ PMAX   = 5.000000E-01  
