***** MODEL PARAMETERS EXTRACTED FROM TECAP *****
.MODEL  RD24E   D
+ RS     = 0.858184      
+ EG     = 1.11          
+ XTI    = 3             
+ IBV    = 0.000855057   
+ VJ     = 0.591421      
+ M      = 0.329199      
+ FC     = 0.99          
+ BV     = 2.410010E+01  
+ CJO    = 3.143180E-11  STAT 2.566396E-11 3.849594E-11 :GAUSS
+ IS     = 9.407310E-14  
+ N      = 1.183990E+00  
+ TT     = 1.000000E-07  
+ PMAX   = 5.000000E-01  
