***** MODEL PARAMETERS EXTRACTED FROM TECAP *****
.MODEL  RD30E   D
+ RS     = 1.33433       
+ EG     = 1.11          
+ XTI    = 3             
+ IBV    = 0.00947804    
+ VJ     = 0.563354      
+ M      = 0.328607      
+ FC     = 0.99          
+ BV     = 2.980350E+01  
+ CJO    = 2.761750E-11  STAT 2.254959E-11 3.382439E-11 :GAUSS
+ IS     = 2.201270E-14  
+ N      = 1.115580E+00  
+ TT     = 1.000000E-07  
+ PMAX   = 5.000000E-01  
