***** MODEL PARAMETERS EXTRACTED FROM TECAP *****
.MODEL  RD39E   D
+ RS     = 1.24719       
+ EG     = 1.11          
+ XTI    = 3             
+ IBV    = 0.0224025     
+ VJ     = 0.544616      
+ M      = 0.324998      
+ FC     = 0.99          
+ BV     = 3.690370E+01  
+ CJO    = 2.332180E-11  STAT 1.904217E-11 2.856325E-11 :GAUSS
+ IS     = 1.117010E-13  
+ N      = 1.177320E+00  
+ TT     = 1.000000E-07  
+ PMAX   = 5.000000E-01  
